lig_E
     RDKit          3D

  9  9  0  0  0  0  0  0  0  0999 V2000
   -2.0796   -0.4468    0.8433 C   0  0  0  0  0  0  0  0  0  0  0  0
   -1.3092   -0.1554   -0.4520 C   0  0  0  0  0  0  0  0  0  0  0  0
   -1.7149    1.1936   -1.0051 C   0  0  0  0  0  0  0  0  0  0  0  0
    0.1672   -0.2206   -0.1666 C   0  0  0  0  0  0  0  0  0  0  0  0
    0.9527   -1.1379   -0.8345 C   0  0  0  0  0  0  0  0  0  0  0  0
    2.3031   -1.1697   -0.5475 C   0  0  0  0  0  0  0  0  0  0  0  0
    2.8122   -0.2843    0.3941 C   0  0  0  0  0  0  0  0  0  0  0  0
    2.0197    0.6469    1.0732 C   0  0  0  0  0  0  0  0  0  0  0  0
    0.6710    0.6711    0.7796 C   0  0  0  0  0  0  0  0  0  0  0  0
  1  2  1  0
  2  3  1  0
  2  4  1  0
  4  5  2  0
  5  6  1  0
  6  7  2  0
  7  8  1  0
  8  9  2  0
  9  4  1  0
M  END
$$$$
