lig_C
     RDKit          3D

  7  7  0  0  0  0  0  0  0  0999 V2000
   -1.6621    0.1850    0.2285 C   0  0  0  0  0  0  0  0  0  0  0  0
   -1.1302   -1.0832    0.1314 C   0  0  0  0  0  0  0  0  0  0  0  0
    0.2119   -1.2184   -0.1108 C   0  0  0  0  0  0  0  0  0  0  0  0
    1.0982   -0.1705   -0.2697 C   0  0  0  0  0  0  0  0  0  0  0  0
    0.5431    1.0906   -0.1684 C   0  0  0  0  0  0  0  0  0  0  0  0
   -0.8164    1.2564    0.0770 C   0  0  0  0  0  0  0  0  0  0  0  0
    2.4547   -0.3415   -0.5145 O   0  0  0  0  0  0  0  0  0  0  0  0
  1  2  2  0
  2  3  1  0
  3  4  2  0
  4  5  1  0
  5  6  2  0
  4  7  1  0
  6  1  1  0
M  END
$$$$
