lig_D
     RDKit          3D

  7  7  0  0  0  0  0  0  0  0999 V2000
    0.2538    1.2097    0.0005 C   0  0  0  0  0  0  0  0  0  0  0  0
   -1.1393    1.3082   -0.0444 C   0  0  0  0  0  0  0  0  0  0  0  0
   -1.8081    0.1156   -0.0286 C   0  0  0  0  0  0  0  0  0  0  0  0
   -1.2751   -1.1488    0.0256 C   0  0  0  0  0  0  0  0  0  0  0  0
    0.1085   -1.1853    0.0684 C   0  0  0  0  0  0  0  0  0  0  0  0
    0.8818   -0.0367    0.0571 C   0  0  0  0  0  0  0  0  0  0  0  0
    2.2948   -0.1485    0.1031 N   0  0  0  0  0  0  0  0  0  0  0  0
  1  2  2  0
  2  3  1  0
  3  4  2  0
  4  5  1  0
  5  6  2  0
  6  7  1  0
  6  1  1  0
M  END
$$$$
