lig_A
     RDKit          3D

  0  0  0  0  0  0  0  0  0  0999 V3000
M  V30 BEGIN CTAB
M  V30 COUNTS 12 12 0 0 1
M  V30 BEGIN ATOM
M  V30 1 C -32.793568 6.099173 2.682708 0
M  V30 2 C -33.593067 4.940587 2.707738 0
M  V30 3 C -34.394119 4.660682 3.833414 0
M  V30 4 C -34.394768 5.540256 4.933078 0
M  V30 5 C -33.592926 6.697927 4.908537 0
M  V30 6 C -32.795780 6.978751 3.782870 0
M  V30 7 H -32.180191 6.313494 1.819955 0
M  V30 8 H -33.594437 4.265790 1.863647 0
M  V30 9 H -35.008411 3.771870 3.851982 0
M  V30 10 H -35.007824 5.325598 5.796314 0
M  V30 11 H -33.593136 7.373359 5.752753 0
M  V30 12 H -32.179356 7.866701 3.764373 0
M  V30 END ATOM
M  V30 BEGIN BOND
M  V30 1 2 2 1
M  V30 2 1 3 2
M  V30 3 2 4 3
M  V30 4 1 5 4
M  V30 5 1 6 1
M  V30 6 2 6 5
M  V30 7 1 7 1
M  V30 8 1 8 2
M  V30 9 1 9 3
M  V30 10 1 10 4
M  V30 11 1 11 5
M  V30 12 1 12 6
M  V30 END BOND
M  V30 END CTAB
M  END
>  <i_epik_Tot_Q>  (1) 
0

>  <i_f3d_flags>  (1) 
0

>  <i_m_Source_File_Index>  (1) 
1

>  <b_m_subgroup_collapsed>  (1) 
0

>  <r_epik_Ionization_Penalty>  (1) 
0

>  <r_epik_State_Penalty>  (1) 
0

>  <r_i_docking_score>  (1) 
-5.7441480803489702

>  <r_i_glide_emodel>  (1) 
-23.861695194110901

>  <r_i_glide_gscore>  (1) 
-5.7441480803489702

>  <r_lp_tautomer_probability>  (1) 
1

>  <s_m_Source_File>  (1) 
glide-dock_SP_43_pv.maegz

>  <s_m_Source_Path>  (1) 
/Users/denisbucher/glide-dock_SP_43

>  <s_m_entry_id>  (1) 
26

>  <s_m_job_name>  (1) 
glide-dock_SP_43

>  <s_m_subgroup_title>  (1) 
glide-dock_SP_43_pv

>  <s_m_subgroupid>  (1) 
glide-dock_SP_43_pv

$$$$
lig_B
     RDKit          3D

  0  0  0  0  0  0  0  0  0  0999 V3000
M  V30 BEGIN CTAB
M  V30 COUNTS 15 15 0 0 1
M  V30 BEGIN ATOM
M  V30 1 C -32.448032 6.730350 1.927568 0
M  V30 2 C -33.192242 6.288568 3.165721 0
M  V30 3 C -34.011559 5.142483 3.132001 0
M  V30 4 C -34.743271 4.765750 4.275297 0
M  V30 5 C -34.646160 5.530354 5.454508 0
M  V30 6 C -33.809864 6.664841 5.496597 0
M  V30 7 C -33.072433 7.029063 4.355523 0
M  V30 8 H -31.662786 7.450850 2.161209 0
M  V30 9 H -33.135326 7.190294 1.217113 0
M  V30 10 H -31.992615 5.865091 1.456806 0
M  V30 11 H -34.093033 4.562998 2.224693 0
M  V30 12 H -35.377602 3.892075 4.250811 0
M  V30 13 H -35.194633 5.233791 6.335134 0
M  V30 14 H -33.714310 7.237061 6.406944 0
M  V30 15 H -32.395546 7.865203 4.395603 0
M  V30 END ATOM
M  V30 BEGIN BOND
M  V30 1 1 2 1
M  V30 2 2 3 2
M  V30 3 1 4 3
M  V30 4 2 5 4
M  V30 5 1 6 5
M  V30 6 1 7 2
M  V30 7 2 7 6
M  V30 8 1 8 1
M  V30 9 1 9 1
M  V30 10 1 10 1
M  V30 11 1 11 3
M  V30 12 1 12 4
M  V30 13 1 13 5
M  V30 14 1 14 6
M  V30 15 1 15 7
M  V30 END BOND
M  V30 END CTAB
M  END
>  <i_epik_Tot_Q>  (2) 
0

>  <i_f3d_flags>  (2) 
0

>  <i_m_Source_File_Index>  (2) 
1

>  <b_m_subgroup_collapsed>  (2) 
0

>  <r_epik_Ionization_Penalty>  (2) 
0

>  <r_epik_State_Penalty>  (2) 
0

>  <r_i_docking_score>  (2) 
-6.2108953503662301

>  <r_i_glide_emodel>  (2) 
-25.6180442011918

>  <r_i_glide_gscore>  (2) 
-6.2108953503662301

>  <r_lp_tautomer_probability>  (2) 
1

>  <s_m_Source_File>  (2) 
glide-dock_SP_43_pv.maegz

>  <s_m_Source_Path>  (2) 
/Users/denisbucher/glide-dock_SP_43

>  <s_m_entry_id>  (2) 
24

>  <s_m_job_name>  (2) 
glide-dock_SP_43

>  <s_m_subgroup_title>  (2) 
glide-dock_SP_43_pv

>  <s_m_subgroupid>  (2) 
glide-dock_SP_43_pv

$$$$
lig_C
     RDKit          3D

  0  0  0  0  0  0  0  0  0  0999 V3000
M  V30 BEGIN CTAB
M  V30 COUNTS 13 13 0 0 1
M  V30 BEGIN ATOM
M  V30 1 C -32.794186 6.222286 2.457547 0
M  V30 2 C -32.793728 7.025064 3.611790 0
M  V30 3 C -33.593044 6.665833 4.714179 0
M  V30 4 C -34.397156 5.511762 4.654346 0
M  V30 5 C -34.390499 4.702487 3.506349 0
M  V30 6 C -33.588520 5.061343 2.410468 0
M  V30 7 O -35.175793 5.171685 5.717130 0
M  V30 8 H -32.180225 6.492077 1.610592 0
M  V30 9 H -32.174572 7.908108 3.651000 0
M  V30 10 H -33.590752 7.280312 5.603436 0
M  V30 11 H -35.001122 3.813864 3.461865 0
M  V30 12 H -33.593338 4.442300 1.529016 0
M  V30 13 H -35.839340 4.519415 5.534556 0
M  V30 END ATOM
M  V30 BEGIN BOND
M  V30 1 2 2 1
M  V30 2 1 3 2
M  V30 3 2 4 3
M  V30 4 1 5 4
M  V30 5 1 6 1
M  V30 6 2 6 5
M  V30 7 1 7 4
M  V30 8 1 8 1
M  V30 9 1 9 2
M  V30 10 1 10 3
M  V30 11 1 11 5
M  V30 12 1 12 6
M  V30 13 1 13 7
M  V30 END BOND
M  V30 END CTAB
M  END
>  <i_epik_Tot_Q>  (3) 
0

>  <i_f3d_flags>  (3) 
0

>  <i_m_Source_File_Index>  (3) 
1

>  <b_m_subgroup_collapsed>  (3) 
0

>  <r_epik_Ionization_Penalty>  (3) 
0.00089999999999999998

>  <r_epik_State_Penalty>  (3) 
0

>  <r_i_docking_score>  (3) 
-6.22255124635707

>  <r_i_glide_emodel>  (3) 
-27.060984174234498

>  <r_i_glide_gscore>  (3) 
-6.22255124635707

>  <r_lp_tautomer_probability>  (3) 
1

>  <s_m_Source_File>  (3) 
glide-dock_SP_43_pv.maegz

>  <s_m_Source_Path>  (3) 
/Users/denisbucher/glide-dock_SP_43

>  <s_m_entry_id>  (3) 
23

>  <s_m_job_name>  (3) 
glide-dock_SP_43

>  <s_m_subgroup_title>  (3) 
glide-dock_SP_43_pv

>  <s_m_subgroupid>  (3) 
glide-dock_SP_43_pv

$$$$
lig_D
     RDKit          3D

  0  0  0  0  0  0  0  0  0  0999 V3000
M  V30 BEGIN CTAB
M  V30 COUNTS 14 14 0 0 1
M  V30 BEGIN ATOM
M  V30 1 C -33.189152 6.967929 4.391187 0
M  V30 2 C -33.990120 6.549186 5.469315 0
M  V30 3 C -34.791821 5.399505 5.341082 0
M  V30 4 C -34.788433 4.668339 4.137940 0
M  V30 5 C -33.983017 5.087632 3.059922 0
M  V30 6 C -33.193420 6.246685 3.184811 0
M  V30 7 N -32.417274 6.693192 2.117207 0
M  V30 8 H -32.557449 7.836638 4.486733 0
M  V30 9 H -33.980598 7.107599 6.393205 0
M  V30 10 H -35.405937 5.066688 6.166395 0
M  V30 11 H -35.405132 3.789487 4.043460 0
M  V30 12 H -33.986210 4.530139 2.135763 0
M  V30 13 H -32.372112 6.180443 1.249379 0
M  V30 14 H -31.818165 7.504817 2.190989 0
M  V30 END ATOM
M  V30 BEGIN BOND
M  V30 1 2 2 1
M  V30 2 1 3 2
M  V30 3 2 4 3
M  V30 4 1 5 4
M  V30 5 1 6 1
M  V30 6 2 6 5
M  V30 7 1 7 6
M  V30 8 1 8 1
M  V30 9 1 9 2
M  V30 10 1 10 3
M  V30 11 1 11 4
M  V30 12 1 12 5
M  V30 13 1 13 7
M  V30 14 1 14 7
M  V30 END BOND
M  V30 END CTAB
M  END
>  <i_epik_Tot_Q>  (4) 
0

>  <i_f3d_flags>  (4) 
0

>  <i_m_Source_File_Index>  (4) 
1

>  <b_m_subgroup_collapsed>  (4) 
0

>  <r_epik_Ionization_Penalty>  (4) 
0.0022000000000000001

>  <r_epik_State_Penalty>  (4) 
0

>  <r_i_docking_score>  (4) 
-5.7781261625370703

>  <r_i_glide_emodel>  (4) 
-26.225689904247702

>  <r_i_glide_gscore>  (4) 
-5.7781261625370703

>  <r_lp_tautomer_probability>  (4) 
1

>  <s_m_Source_File>  (4) 
glide-dock_SP_43_pv.maegz

>  <s_m_Source_Path>  (4) 
/Users/denisbucher/glide-dock_SP_43

>  <s_m_entry_id>  (4) 
25

>  <s_m_job_name>  (4) 
glide-dock_SP_43

>  <s_m_subgroup_title>  (4) 
glide-dock_SP_43_pv

>  <s_m_subgroupid>  (4) 
glide-dock_SP_43_pv

$$$$
lig_E
     RDKit          3D

  0  0  0  0  0  0  0  0  0  0999 V3000
M  V30 BEGIN CTAB
M  V30 COUNTS 21 21 0 0 1
M  V30 BEGIN ATOM
M  V30 1 C -31.593561 8.236813 3.781977 0
M  V30 2 C -32.734150 7.761127 2.893301 0
M  V30 3 C -32.386559 7.736680 1.393909 0
M  V30 4 C -33.315777 6.495927 3.456752 0
M  V30 5 C -33.995583 6.563278 4.691325 0
M  V30 6 C -34.742790 5.465206 5.148406 0
M  V30 7 C -34.777843 4.297565 4.373807 0
M  V30 8 C -33.993561 4.200168 3.219984 0
M  V30 9 C -33.249924 5.284721 2.757839 0
M  V30 10 H -31.715446 7.958600 4.829036 0
M  V30 11 H -31.593561 9.319116 3.736167 0
M  V30 12 H -30.631964 7.847639 3.456754 0
M  V30 13 H -33.562820 8.455365 2.960710 0
M  V30 14 H -33.253868 7.465172 0.792205 0
M  V30 15 H -32.064083 8.720167 1.055007 0
M  V30 16 H -31.581728 7.039145 1.168955 0
M  V30 17 H -33.993568 7.479442 5.262633 0
M  V30 18 H -35.296425 5.515992 6.071692 0
M  V30 19 H -35.391895 3.465210 4.656754 0
M  V30 20 H -33.993565 3.289354 2.658328 0
M  V30 21 H -32.675510 5.183936 1.856754 0
M  V30 END ATOM
M  V30 BEGIN BOND
M  V30 1 1 2 1
M  V30 2 1 3 2
M  V30 3 1 4 2
M  V30 4 2 5 4
M  V30 5 1 6 5
M  V30 6 2 7 6
M  V30 7 1 8 7
M  V30 8 1 9 4
M  V30 9 2 9 8
M  V30 10 1 10 1
M  V30 11 1 11 1
M  V30 12 1 12 1
M  V30 13 1 13 2
M  V30 14 1 14 3
M  V30 15 1 15 3
M  V30 16 1 16 3
M  V30 17 1 17 5
M  V30 18 1 18 6
M  V30 19 1 19 7
M  V30 20 1 20 8
M  V30 21 1 21 9
M  V30 END BOND
M  V30 END CTAB
M  END
>  <i_epik_Tot_Q>  (5) 
0

>  <i_f3d_flags>  (5) 
0

>  <i_m_Source_File_Index>  (5) 
1

>  <b_m_subgroup_collapsed>  (5) 
0

>  <r_epik_Ionization_Penalty>  (5) 
0

>  <r_epik_State_Penalty>  (5) 
0

>  <r_i_docking_score>  (5) 
-6.4881187379779499

>  <r_i_glide_emodel>  (5) 
-14.0181814238819

>  <r_i_glide_gscore>  (5) 
-6.4881187379779499

>  <r_lp_tautomer_probability>  (5) 
1

>  <s_m_Source_File>  (5) 
glide-dock_SP_43_pv.maegz

>  <s_m_Source_Path>  (5) 
/Users/denisbucher/glide-dock_SP_43

>  <s_m_entry_id>  (5) 
22

>  <s_m_job_name>  (5) 
glide-dock_SP_43

>  <s_m_subgroup_title>  (5) 
glide-dock_SP_43_pv

>  <s_m_subgroupid>  (5) 
glide-dock_SP_43_pv

$$$$
